******
** ngspice-42 : Circuit level simulation program
** Compiled with KLU Direct Linear Solver
** The U. C. Berkeley CAD Group
** Copyright 1985-1994, Regents of the University of California.
** Copyright 2001-2023, The ngspice team.
** Please get your ngspice manual from https://ngspice.sourceforge.io/docs.html
** Please file your bug-reports at http://ngspice.sourceforge.net/bugrep.html
** Creation Date: Sun Mar 31 20:15:14 UTC 2024
******

Note: No compatibility mode selected!


Circuit: *lib "/home/ruthwika/pdk/sky130A/libs.tech/ngspice/sky130.lib.spice" tt

Numparam expansion errors: Run Spice anyway? y/n ?
