******
** ngspice-42 : Circuit level simulation program
** Compiled with KLU Direct Linear Solver
** The U. C. Berkeley CAD Group
** Copyright 1985-1994, Regents of the University of California.
** Copyright 2001-2023, The ngspice team.
** Please get your ngspice manual from https://ngspice.sourceforge.io/docs.html
** Please file your bug-reports at http://ngspice.sourceforge.net/bugrep.html
** Creation Date: Sun Mar 31 20:15:14 UTC 2024
******

Note: No compatibility mode selected!


Circuit: *=========================================================

Doing analysis at TEMP = 27.000000 and TNOM = 27.000000

 Reference value :  0.00000e+00
No. of Data Rows : 1
====================================
 POST-LAYOUT TT RESULTS
====================================
v(vref) = 1.112649e+00
v(vdd) = 2.000000e+00
@vdd[i] = -3.51816e-05

Derived Parameters
iq = 3.518164e-05
power = 7.036329e-05
ngspice-42 done
